/*--------------------------------*- C++ -*----------------------------------*\
  =========                 |
  \\      /  F ield         | OpenFOAM: The Open Source CFD Toolbox
   \\    /   O peration     | Website:  https://openfoam.org
    \\  /    A nd           | Version:  7
     \\/     M anipulation  |
\*---------------------------------------------------------------------------*/
FoamFile
{
    version     2.0;
    format      ascii;
    class       dictionary;
    location    "system";
    object      fvSolution;
}
// * * * * * * * * * * * * * * * * * * * * * * * * * * * * * * * * * * * * * //

solvers
{
    p
    {
        solver          GAMG;
        tolerance       1e-05;
        relTol          0.1;
        smoother        GaussSeidel;
    }

    pFinal
    {
	$p;
	relTol		0;
    }

    "(rho|rhoU|rhoE)"
    {
        solver          diagonal;
    }

    "(U|k|e|omega)"
    {
        solver          smoothSolver;
        smoother        GaussSeidel;
        tolerance       1e-05;
        relTol          0;
    }
   
    "(rho|U|e|omega|k)Final"
    {
        $U;
        relTol          0;
    }

    h
    {
        $U;
        tolerance       1e-05;
        relTol          0;
    }
}

PIMPLE
{
	transonic	yes;
}

// ************************************************************************* //
